Version 4
SHEET 1 880 680
WIRE -208 -400 -256 -400
WIRE -80 -400 -144 -400
WIRE -256 -384 -256 -400
WIRE -208 -384 -240 -384
WIRE -96 -384 -144 -384
WIRE -80 -384 -80 -400
WIRE -208 -336 -256 -336
WIRE -112 -336 -144 -336
WIRE -240 -320 -240 -384
WIRE -208 -320 -240 -320
WIRE -96 -320 -96 -384
WIRE -96 -320 -144 -320
WIRE -256 -304 -256 -336
WIRE -112 -288 -112 -336
WIRE -96 -288 -96 -320
WIRE -368 -272 -432 -272
WIRE -288 -272 -304 -272
WIRE -256 -272 -256 -304
WIRE -224 -272 -256 -272
WIRE -368 -256 -384 -256
WIRE -272 -256 -304 -256
WIRE -240 -256 -240 -320
WIRE -240 -256 -272 -256
WIRE -224 -256 -240 -256
WIRE -112 -256 -112 -288
WIRE -112 -256 -128 -256
WIRE -432 -240 -432 -272
WIRE -384 -240 -384 -256
WIRE -288 -240 -288 -272
WIRE -96 -240 -96 -288
WIRE -96 -240 -128 -240
WIRE -224 -208 -224 -224
WIRE -432 -160 -432 -176
FLAG -432 -160 0
FLAG -432 -272 in
FLAG -224 -208 0
FLAG -384 -240 0
FLAG -80 -384 0
FLAG -112 -288 out1
FLAG -96 -288 out2
FLAG -288 -240 0
FLAG -256 -384 0
FLAG -272 -256 in2
FLAG -256 -304 in1
SYMBOL AnalogIC\\VAC -448 -240 R0
WINDOW 0 34 23 Left 2
WINDOW 3 32 48 Left 1
SYMATTR InstName Vin
SYMBOL AnalogIC\\SOPAMPG -224 -272 R0
WINDOW 3 48 48 Left 1
SYMATTR InstName OA1
SYMATTR Value Av={A}
SYMBOL AnalogIC\\SC -368 -272 R0
WINDOW 3 33 24 Center 2
WINDOW 123 32 36 Center 1
WINDOW 0 33 -11 Center 2
SYMATTR Value C={C2}
SYMATTR Value2 fs={fck}
SYMATTR InstName SC2
SYMBOL AnalogIC\\SC -208 -336 R0
WINDOW 3 32 26 Center 2
WINDOW 123 32 38 Center 1
WINDOW 0 33 -9 Center 2
SYMATTR Value C={C}
SYMATTR Value2 fs={fck}
SYMATTR InstName SC1
SYMBOL AnalogIC\\SC -208 -400 R0
WINDOW 3 32 26 Center 2
WINDOW 123 32 38 Center 1
WINDOW 0 31 -10 Center 2
SYMATTR Value C={C3}
SYMATTR Value2 fs={fck}
SYMATTR InstName SC3
TEXT -392 -120 Left 2 !.param A=1E5 fck=200k
TEXT -392 -104 Left 2 !.param C=1p alpha=0.031416 C2=alpha*C C3=alpha*C
TEXT -392 -88 Left 2 !.ac dec 100 10 100k
