Version 4
SHEET 1 964 1344
WIRE 112 96 80 96
WIRE 144 96 112 96
WIRE 304 96 176 96
WIRE 336 96 304 96
WIRE 80 112 80 96
WIRE 144 112 144 96
WIRE 176 112 176 96
WIRE 336 112 336 96
WIRE 80 192 80 176
WIRE 144 192 144 176
WIRE 144 192 80 192
WIRE 176 192 176 176
WIRE 176 192 144 192
WIRE 336 192 336 176
WIRE 336 192 176 192
WIRE 176 208 176 192
WIRE 112 256 80 256
WIRE 144 256 112 256
WIRE 304 256 176 256
WIRE 336 256 304 256
WIRE 144 272 144 256
WIRE 176 272 176 256
WIRE 336 272 336 256
WIRE 144 352 144 336
WIRE 144 352 80 352
WIRE 176 352 176 336
WIRE 176 352 144 352
WIRE 336 352 336 336
WIRE 336 352 176 352
WIRE 176 368 176 352
WIRE 112 416 80 416
WIRE 144 416 112 416
WIRE 480 416 176 416
WIRE 512 416 480 416
WIRE 144 432 144 416
WIRE 176 432 176 416
WIRE 512 432 512 416
WIRE 144 512 144 496
WIRE 144 512 80 512
WIRE 176 512 176 496
WIRE 176 512 144 512
WIRE 512 512 512 496
WIRE 512 512 176 512
WIRE 176 528 176 512
WIRE 112 576 80 576
WIRE 144 576 112 576
WIRE 576 576 176 576
WIRE 608 576 576 576
WIRE 144 592 144 576
WIRE 176 592 176 576
WIRE 608 592 608 576
WIRE 144 672 144 656
WIRE 144 672 80 672
WIRE 176 672 176 656
WIRE 176 672 144 672
WIRE 608 672 608 656
WIRE 608 672 176 672
WIRE 176 688 176 672
WIRE 112 736 80 736
WIRE 144 736 112 736
WIRE 688 736 176 736
WIRE 720 736 688 736
WIRE 144 752 144 736
WIRE 176 752 176 736
WIRE 720 752 720 736
WIRE 144 832 144 816
WIRE 144 832 80 832
WIRE 176 832 176 816
WIRE 176 832 144 832
WIRE 720 832 720 816
WIRE 720 832 176 832
WIRE 176 848 176 832
WIRE 112 896 80 896
WIRE 144 896 112 896
WIRE 800 896 176 896
WIRE 832 896 800 896
WIRE 144 912 144 896
WIRE 176 912 176 896
WIRE 832 912 832 896
WIRE 144 992 144 976
WIRE 144 992 80 992
WIRE 176 992 176 976
WIRE 176 992 144 992
WIRE 832 992 832 976
WIRE 832 992 176 992
WIRE 176 1008 176 992
FLAG 112 96 in
FLAG 304 96 out0
FLAG 176 208 0
FLAG 176 368 0
FLAG 112 256 in
FLAG 304 256 out1
FLAG 176 528 0
FLAG 112 416 in
FLAG 480 416 out2
FLAG 176 688 0
FLAG 112 576 in
FLAG 576 576 out3
FLAG 176 848 0
FLAG 112 736 in
FLAG 688 736 out4
FLAG 176 1008 0
FLAG 112 896 in
FLAG 800 896 out5
SYMBOL AnalogIC\\VAC 64 112 R0
SYMATTR InstName V1
SYMBOL AnalogIC\\VCVS 144 112 R0
WINDOW 0 50 22 Left 2
WINDOW 3 50 41 Left 2
SYMATTR InstName E0
SYMATTR Value Laplace=exp(-s*DT)
SYMBOL AnalogIC\\R 320 112 R0
WINDOW 0 32 24 Left 2
SYMATTR InstName R0
SYMBOL AnalogIC\\VCVS 144 272 R0
WINDOW 0 50 22 Left 2
WINDOW 3 50 41 Left 2
SYMATTR InstName E1
SYMATTR Value Laplace=(n11*DT*s+n10)/(d11*DT*s+d10)
SYMBOL AnalogIC\\R 320 272 R0
WINDOW 0 32 24 Left 2
SYMATTR InstName R1
SYMBOL AnalogIC\\VCVS 144 432 R0
WINDOW 0 50 22 Left 2
WINDOW 3 50 41 Left 2
SYMATTR InstName E2
SYMATTR Value Laplace=(n22*(DT*s)^2+n21*DT*s+n20)/(d22*(DT*s)^2+d21*DT*s+d20)
SYMBOL AnalogIC\\R 496 432 R0
WINDOW 0 32 24 Left 2
SYMATTR InstName R2
SYMBOL AnalogIC\\VCVS 144 592 R0
WINDOW 0 50 22 Left 2
WINDOW 3 50 41 Left 2
SYMATTR InstName E3
SYMATTR Value Laplace=(n33*(DT*s)^3+n32*(DT*s)^2+n31*DT*s+n30)/(d33*(DT*s)^3+d32*(DT*s)^2+d31*DT*s+d30)
SYMBOL AnalogIC\\R 592 592 R0
WINDOW 0 32 24 Left 2
SYMATTR InstName R3
SYMBOL AnalogIC\\VCVS 144 752 R0
WINDOW 0 50 22 Left 2
WINDOW 3 50 41 Left 2
SYMATTR InstName E4
SYMATTR Value Laplace=(n44*(DT*s)^4+n43*(DT*s)^3+n42*(DT*s)^2+n41*DT*s+n40)/(d44*(DT*s)^4+d43*(DT*s)^3+d42*(DT*s)^2+d41*DT*s+d40)
SYMBOL AnalogIC\\R 704 752 R0
WINDOW 0 32 24 Left 2
SYMATTR InstName R4
SYMBOL AnalogIC\\VCVS 144 912 R0
WINDOW 0 50 22 Left 2
WINDOW 3 52 44 Left 2
SYMATTR InstName E5
SYMATTR Value Laplace=(n55*(DT*s)^5+n54*(DT*s)^4+n53*(DT*s)^3+n52*(DT*s)^2+n51*DT*s+n50)/(d55*(DT*s)^5+d54*(DT*s)^4+d53*(DT*s)^3+d52*(DT*s)^2+d51*DT*s+d50)
SYMBOL AnalogIC\\R 816 912 R0
SYMATTR InstName R5
TEXT 80 1048 Left 2 !.param fs=1 T={1/fs} D=0.5 DT={D*T}
TEXT 80 1064 Left 2 !.ac dec 200 0.1 10
TEXT -40 280 Left 2 !.param n10=2 n11=-1
TEXT -40 296 Left 2 !.param d10=2 d11=1
TEXT -40 448 Left 2 !.param n20=12 n21=-6 n22=1
TEXT -40 464 Left 2 !.param d20=12 d21=6 d22=1
TEXT -56 600 Left 2 !.param n30=120 n31=-60 n32=12 n33=-1
TEXT -56 616 Left 2 !.param d30=120 d31=60 d32=12 d33=1
TEXT -88 768 Left 2 !.param n40=1680 n41=-840 n42=180 n43=-20 n44=1
TEXT -88 784 Left 2 !.param d40=1680 d41=840 d42=180 d43=20 d44=1
TEXT -144 928 Left 2 !.param n50=30240 n51=-15120 n52=3360 n53=-420 n54=30 n55=-1
TEXT -136 944 Left 2 !.param d50=30240 d51=15120 d52=3360 d53=420 d54=30 d55=1
