Version 4
SHEET 1 880 680
WIRE 320 0 80 0
WIRE 608 0 384 0
WIRE 80 48 80 0
WIRE 112 48 80 48
WIRE 192 48 176 48
WIRE 80 96 80 48
WIRE 112 96 80 96
WIRE 192 96 192 48
WIRE 192 96 176 96
WIRE 320 112 288 112
WIRE 400 112 384 112
WIRE 528 128 496 128
WIRE 608 128 608 0
WIRE 608 128 592 128
WIRE 0 144 -16 144
WIRE 80 144 80 96
WIRE 80 144 64 144
WIRE 96 144 80 144
WIRE 192 160 192 96
WIRE 192 160 176 160
WIRE 208 160 192 160
WIRE 288 160 288 112
WIRE 288 160 272 160
WIRE 304 160 288 160
WIRE 96 176 80 176
WIRE 400 176 400 112
WIRE 400 176 384 176
WIRE 416 176 400 176
WIRE 496 176 496 128
WIRE 496 176 480 176
WIRE 512 176 496 176
WIRE 80 192 80 176
WIRE 304 192 288 192
WIRE 608 192 608 128
WIRE 608 192 592 192
WIRE 288 208 288 192
WIRE 512 208 496 208
WIRE 496 224 496 208
WIRE 400 256 400 176
WIRE 416 256 400 256
FLAG 288 208 0
FLAG 496 224 0
FLAG 80 192 0
FLAG -16 144 in
IOPIN -16 144 In
FLAG 416 256 out
IOPIN 416 256 Out
SYMBOL AnalogIC\\OPAMP 96 192 M180
WINDOW 3 53 14 Left 0
SYMATTR InstName U1
SYMATTR Value A0={A0}
SYMBOL AnalogIC\\OPAMP 304 208 M180
WINDOW 3 54 14 Left 0
SYMATTR InstName U2
SYMATTR Value A0={A0}
SYMBOL AnalogIC\\OPAMP 512 224 M180
WINDOW 3 65 11 Left 0
SYMATTR InstName U3
SYMATTR Value A0={A0}
SYMBOL AnalogIC\\C 176 80 R90
WINDOW 0 10 12 VBottom 2
WINDOW 3 22 13 VTop 2
SYMATTR InstName C1
SYMATTR Value {C}
SYMBOL AnalogIC\\R 176 32 R90
WINDOW 3 -13 -3 VTop 2
WINDOW 0 8 32 VBottom 2
SYMATTR Value {R4}
SYMATTR InstName R4
SYMBOL AnalogIC\\R 272 144 R90
WINDOW 3 24 32 VTop 2
WINDOW 0 8 32 VBottom 2
SYMATTR Value {R}
SYMATTR InstName R5
SYMBOL AnalogIC\\C 384 96 R90
WINDOW 0 0 32 VBottom 2
WINDOW 3 32 32 VTop 2
SYMATTR InstName C2
SYMATTR Value {C}
SYMBOL AnalogIC\\R 480 160 R90
WINDOW 3 24 32 VTop 2
WINDOW 0 8 32 VBottom 2
SYMATTR Value {R}
SYMATTR InstName R6
SYMBOL AnalogIC\\R 592 112 R90
WINDOW 3 24 32 VTop 2
WINDOW 0 8 32 VBottom 2
SYMATTR Value {R}
SYMATTR InstName R7
SYMBOL AnalogIC\\R 384 -16 R90
WINDOW 3 24 32 VTop 2
WINDOW 0 8 32 VBottom 2
SYMATTR Value {R}
SYMATTR InstName R8
SYMBOL AnalogIC\\R 64 128 R90
WINDOW 3 24 32 VTop 2
WINDOW 0 8 32 VBottom 2
SYMATTR Value {R1}
SYMATTR InstName R1
TEXT 80 -72 Left 2 !.param w0=2*pi*f0 R1=R/K R4=Q*R C=1/(w0*R)
TEXT 80 -96 Left 2 ;Design equations for active RC implementation
TEXT 80 -120 Left 2 ;f0=1k Q=1 R=1k A0=100k
TEXT 80 -144 Left 2 ;Parameters:
