Version 4
SHEET 1 1148 680
WIRE 496 96 432 96
WIRE 640 96 560 96
WIRE 352 160 320 160
WIRE 432 160 432 96
WIRE 432 160 416 160
WIRE 448 160 432 160
WIRE 528 160 512 160
WIRE 560 160 528 160
WIRE 528 176 528 160
WIRE 640 176 640 96
WIRE 672 176 640 176
WIRE 560 224 560 192
WIRE 640 224 640 176
WIRE 640 224 560 224
WIRE 528 256 528 240
FLAG 528 256 0
FLAG 432 160 1
FLAG 528 160 2
FLAG 320 160 in
IOPIN 320 160 In
FLAG 672 176 out
IOPIN 672 176 Out
SYMBOL AnalogIC\\OPAMP 560 144 R0
WINDOW 3 9 -13 Left 2
SYMATTR InstName U2
SYMBOL AnalogIC\\R 416 144 R90
WINDOW 3 24 32 VTop 2
WINDOW 0 8 32 VBottom 2
SYMATTR Value {R1}
SYMATTR InstName R1
SYMBOL AnalogIC\\R 512 144 R90
WINDOW 3 24 32 VTop 2
WINDOW 0 8 32 VBottom 2
SYMATTR Value {R2}
SYMATTR InstName R2
SYMBOL AnalogIC\\C 560 80 R90
WINDOW 0 0 32 VBottom 2
WINDOW 3 32 32 VTop 2
SYMATTR InstName C1
SYMATTR Value {C1}
SYMBOL AnalogIC\\C 544 240 R180
WINDOW 0 24 54 Left 2
WINDOW 3 24 8 Left 2
SYMATTR InstName C2
SYMATTR Value {C2}
TEXT 240 32 Left 2 !.param w0=2*pi*f0 R1=R R2=R C1=2*Q/(R*w0) C2=1/(2*R*Q*w0)
TEXT 240 8 Left 2 ;Design equations for active RC implementation
TEXT 240 -40 Left 2 ;Parameters:
TEXT 240 -16 Left 2 ;f0=1k Q=1 R=1k A0=100k
