Version 4
SHEET 1 880 680
WIRE 80 48 64 48
WIRE 176 48 80 48
WIRE 352 48 176 48
WIRE 528 48 464 48
WIRE 576 48 528 48
WIRE 624 48 576 48
WIRE 160 64 96 64
WIRE 480 64 336 64
WIRE 528 64 480 64
WIRE 560 64 528 64
WIRE 160 80 160 64
WIRE 176 80 176 48
WIRE 336 80 336 64
WIRE 352 80 352 48
WIRE 560 80 560 64
WIRE 576 80 576 48
WIRE 80 96 80 48
WIRE 96 96 96 64
WIRE 464 96 464 48
WIRE 480 96 480 64
WIRE 400 144 352 144
WIRE 352 160 272 160
WIRE 208 176 192 176
WIRE 336 176 336 144
WIRE 336 176 288 176
WIRE 608 176 592 176
WIRE 96 192 96 160
WIRE 144 192 144 176
WIRE 144 192 96 192
WIRE 208 192 208 176
WIRE 208 192 176 192
WIRE 336 192 336 176
WIRE 352 192 352 160
WIRE 400 192 400 144
WIRE 400 192 384 192
WIRE 480 192 480 160
WIRE 544 192 544 176
WIRE 544 192 480 192
WIRE 80 208 80 160
WIRE 160 208 160 176
WIRE 160 208 80 208
WIRE 208 208 208 192
WIRE 272 208 272 160
WIRE 288 208 288 176
WIRE 400 208 400 192
WIRE 464 208 464 160
WIRE 560 208 560 176
WIRE 560 208 464 208
WIRE 608 208 608 176
WIRE 608 208 576 208
WIRE 176 224 176 192
WIRE 176 224 96 224
WIRE 560 224 560 208
WIRE 576 224 576 208
WIRE 608 224 608 208
WIRE 80 240 80 208
WIRE 96 240 96 224
WIRE 160 240 160 208
WIRE 176 240 176 224
WIRE 64 304 64 48
WIRE 80 304 64 304
WIRE 288 304 288 272
WIRE 352 304 352 288
WIRE 352 304 288 304
WIRE 576 304 576 288
WIRE 576 304 352 304
WIRE 160 320 160 304
WIRE 272 320 272 272
WIRE 272 320 160 320
WIRE 368 320 368 288
WIRE 368 320 272 320
WIRE 560 320 560 288
WIRE 624 320 624 48
WIRE 624 320 560 320
WIRE 96 336 96 304
WIRE 96 336 0 336
WIRE 176 336 176 304
WIRE 176 336 96 336
WIRE 0 368 0 336
WIRE 0 448 0 432
FLAG 208 208 0
FLAG 0 448 0
FLAG 400 208 0
FLAG 608 224 0
FLAG 528 64 out1
FLAG 528 48 out2
FLAG 0 336 in
SYMBOL AnalogIC\\SOPAMPG 144 176 R270
WINDOW 3 58 38 VRight 1
SYMATTR Value Av={A}
SYMATTR InstName OA1
SYMBOL AnalogIC\\SC 96 96 R90
WINDOW 3 31 -6 VLeft 2
WINDOW 123 42 -7 VLeft 1
WINDOW 0 54 -7 VLeft 1
SYMATTR Value C={C1}
SYMATTR Value2 fs={fs}
SYMATTR InstName SC3
SYMBOL AnalogIC\\SC 176 240 R90
WINDOW 3 31 -5 VLeft 2
WINDOW 123 43 -7 VLeft 1
WINDOW 0 55 -7 VLeft 1
SYMATTR Value C={C11}
SYMATTR Value2 fs={fs}
SYMATTR InstName SC2
SYMBOL AnalogIC\\SC 96 240 R90
WINDOW 3 31 -6 VLeft 2
WINDOW 123 42 -7 VLeft 1
WINDOW 0 54 -7 VLeft 1
SYMATTR Value C={C12}
SYMATTR Value2 fs={fs}
SYMATTR InstName SC1
SYMBOL AnalogIC\\VAC -16 368 R0
WINDOW 0 34 23 Left 2
SYMATTR InstName Vin
SYMBOL AnalogIC\\SOPAMPG 336 192 M90
WINDOW 3 58 38 VRight 1
SYMATTR Value Av={A}
SYMATTR InstName OA2
SYMBOL AnalogIC\\SC 288 208 R90
WINDOW 3 31 -6 VLeft 2
WINDOW 123 44 -8 VLeft 1
WINDOW 0 56 -8 VLeft 1
SYMATTR Value C={C2}
SYMATTR Value2 fs={fs}
SYMATTR InstName SC5
SYMBOL AnalogIC\\SC 336 80 M90
WINDOW 3 32 21 VRight 2
WINDOW 123 41 23 VRight 1
WINDOW 0 53 23 VRight 1
SYMATTR Value C={C22}
SYMATTR Value2 fs={fs}
SYMATTR InstName SC4
SYMBOL AnalogIC\\SOPAMPG 544 176 R270
WINDOW 3 58 38 VRight 1
SYMATTR Value Av={A}
SYMATTR InstName OA3
SYMBOL AnalogIC\\SC 480 96 R90
WINDOW 3 32 -5 VLeft 2
WINDOW 123 44 -7 VLeft 1
WINDOW 0 56 -7 VLeft 1
SYMATTR Value C={C3}
SYMATTR Value2 fs={fs}
SYMATTR InstName SC7
SYMBOL AnalogIC\\SC 576 224 R90
WINDOW 3 31 -4 VLeft 2
WINDOW 123 43 -7 VLeft 1
WINDOW 0 55 -7 VLeft 1
SYMATTR Value C={C33}
SYMATTR Value2 fs={fs}
SYMATTR InstName SC6
TEXT 72 368 Left 2 !.param A=100 fs=2e+06 a11=0.0310497 a12=0.0310497 a2=0.0632046 a3=0.0310497
TEXT 72 384 Left 2 !.param C1=3.3e-12 C11=a11*C1 C12=a12*C1 C2=3.3e-12 C22=a2*C2 C3=3.3e-12 C33=a3*C3
TEXT 72 400 Left 2 !.ac dec 101 1k 1MEG
