Version 4
SHEET 1 880 680
WIRE 208 32 176 32
WIRE 288 32 272 32
WIRE 96 80 80 80
WIRE 176 80 176 32
WIRE 176 80 160 80
WIRE 208 80 176 80
WIRE 288 80 288 32
WIRE 288 80 272 80
WIRE 80 128 80 80
WIRE 80 128 48 128
WIRE 96 128 80 128
WIRE 176 128 176 80
WIRE 176 128 160 128
WIRE 192 128 176 128
WIRE 288 144 288 80
WIRE 288 144 272 144
WIRE 320 144 288 144
WIRE 192 160 176 160
WIRE 176 176 176 160
FLAG 176 176 0
FLAG 48 128 in
IOPIN 48 128 In
FLAG 320 144 out
IOPIN 320 144 Out
FLAG 176 32 1
SYMBOL AnalogIC\\OPAMP 192 176 M180
SYMATTR InstName U1
SYMATTR Value A0={A0}
SYMBOL AnalogIC\\R 160 112 R90
WINDOW 3 24 -1 VTop 2
WINDOW 0 45 30 VBottom 2
SYMATTR Value {R1}
SYMATTR InstName R1
SYMBOL AnalogIC\\R 272 64 R90
WINDOW 3 -14 -1 VTop 2
WINDOW 0 6 31 VBottom 2
SYMATTR Value {R2}
SYMATTR InstName R2
SYMBOL AnalogIC\\C 272 16 R90
WINDOW 0 0 32 VBottom 2
WINDOW 3 -21 -2 VTop 2
SYMATTR InstName C2
SYMATTR Value {C2}
SYMBOL AnalogIC\\C 160 64 R90
WINDOW 0 -3 31 VBottom 2
WINDOW 3 -24 4 VTop 2
SYMATTR InstName C1
SYMATTR Value {C1}
TEXT 8 -24 Left 2 !.param fc=1k wc=2*pi*fc fz=1T wz=2*pi*fz T0=1 R1=R R2=R1*abs(T0) C1=1/(R1*wz) C2=1/(R2*wc) A0=100k
TEXT 8 -48 Left 2 ;Design equations:
TEXT 8 -96 Left 2 ;Parameters:
TEXT 8 -72 Left 2 ;fc=1k fz=1T T0=1 R=1k A0=100k
