Version 4
SHEET 1 880 680
WIRE 32 -16 0 -16
WIRE 80 -16 32 -16
WIRE 128 -16 96 -16
WIRE 160 -16 128 -16
WIRE 240 -16 176 -16
WIRE 0 0 0 -16
WIRE 80 0 80 -16
WIRE 96 0 96 -16
WIRE 160 0 160 -16
WIRE 176 0 176 -16
WIRE 0 80 0 64
WIRE 80 80 80 64
WIRE 80 80 0 80
WIRE 176 80 176 64
WIRE 176 80 80 80
WIRE 240 80 176 80
WIRE 0 96 0 80
WIRE 64 144 48 144
WIRE 144 144 128 144
WIRE 192 144 144 144
WIRE 144 160 144 144
WIRE 144 240 144 224
WIRE 144 240 48 240
WIRE 192 240 144 240
WIRE 144 256 144 240
FLAG 0 96 0
FLAG 32 -16 in
FLAG 48 144 in
FLAG 192 144 outct
FLAG 128 -16 1
FLAG 240 -16 outsc
FLAG 144 256 0
SYMBOL AnalogIC\\VAC -16 0 R0
WINDOW 0 -4 31 Right 2
WINDOW 123 -5 43 Right 1
WINDOW 39 0 0 Left 0
SYMATTR InstName Vin
SYMATTR Value2 AC 1
SYMATTR Value ""
SYMBOL AnalogIC\\C 160 224 R180
WINDOW 0 -6 33 Right 2
WINDOW 3 -6 20 Right 2
SYMATTR InstName C2
SYMATTR Value {C2}
SYMBOL AnalogIC\\R 128 128 R90
WINDOW 3 24 32 VTop 2
WINDOW 0 8 32 VBottom 2
SYMATTR Value {R}
SYMATTR InstName R1
SYMBOL AnalogIC\\SCG 80 0 R0
WINDOW 3 19 32 Left 2
WINDOW 123 21 46 Left 1
WINDOW 0 -16 32 Left 1
SYMATTR Value C={C1}
SYMATTR Value2 fs={fs}
SYMATTR InstName SC1
SYMBOL AnalogIC\\SCG 176 0 M0
WINDOW 3 -39 33 Left 2
WINDOW 123 -26 46 Left 1
WINDOW 0 20 33 Left 1
SYMATTR Value C={C2}
SYMATTR Value2 fs={fs}
SYMATTR InstName SC2
TEXT 48 280 Left 2 !.param fs=100k fc=1k C2=1p C1=2*pi*fc/fs*C2 R=1/(2*pi*C2*fc)
TEXT 48 296 Left 2 !.ac lin 1000 1 100k
